RF_Spanish_representative_feeders/RFs_OpenDSS/RF5.dss
clear

new circuit.feeder80

!-- Linecodes ------------------------------------------------------------------------------------------------------

redirect linecode.txt

!-- Loadshapes ------------------------------------------------------------------------------------------------------

redirect Loadshape.txt

! -TRFRMS-----------------------------------------------------------------------------------------------------------------

New line.mv Bus1=sourcebus Bus2=14.1.2.3 phases=3 Linecode=101 Length=5 Units=m
New Transformer.td008742 windings=2 Buses=[14.1.2.3 44.1.2.3.4] Conns=[DELTA WYE] kVs=[22.0 0.42] kVAs=[630.0 630.0] XHL=4.0 phases=3 sub=y
New Reactor.Yngrnd phases=1 bus1=44.4 bus2=44.0 R=5 X=0.01

! -LINES-----------------------------------------------------------------------------------------------------------------

New Line.83_1 Bus1=83_1.1.2.3.4 Bus2=83_2.1.2.3.4 phases=3 linecode=201 Length=3.318 Units=m  
New Line.69_2 Bus1=69_2.1.2.3.4 Bus2=69_3.1.2.3.4 phases=3 linecode=316 Length=0.86 Units=m   
New Line.112 Bus1=116.1.2.3.4 Bus2=112.1.2.3.4 phases=3 linecode=304 Length=1.08 Units=m      
New Line.66_20 Bus1=66_20.1.2.3.4 Bus2=66_21.1.2.3.4 phases=3 linecode=316 Length=2.079 Units=m
New Line.83 Bus1=83_2.1.2.3.4 Bus2=83.1.2.3.4 phases=3 linecode=201 Length=0.503 Units=m      
New Line.117 Bus1=121.1.2.3.4 Bus2=117.1.2.3.4 phases=3 linecode=304 Length=1.099 Units=m     
New Line.66_4 Bus1=66_4.1.2.3.4 Bus2=66_5.1.2.3.4 phases=3 linecode=316 Length=9.501 Units=m  
New Line.89_0 Bus1=86.1.2.3.4 Bus2=89_1.1.2.3.4 phases=3 linecode=304 Length=0.857 Units=m    
New Line.98_1 Bus1=98_1.1.2.3.4 Bus2=98_2.1.2.3.4 phases=3 linecode=304 Length=1.298 Units=m  
New Line.98_10 Bus1=98_10.1.2.3.4 Bus2=98_11.1.2.3.4 phases=3 linecode=304 Length=1.684 Units=m
New Line.61 Bus1=61_12.1.2.3.4 Bus2=61.1.2.3.4 phases=3 linecode=316 Length=33.473 Units=m    
New Line.97_0 Bus1=96.1.2.3.4 Bus2=97_1.1.2.3.4 phases=3 linecode=304 Length=0.949 Units=m    
New Line.100_3 Bus1=100_3.1.2.3.4 Bus2=100_4.1.2.3.4 phases=3 linecode=304 Length=3.023 Units=m
New Line.125 Bus1=125_1.1.2.3.4 Bus2=125.1.2.3.4 phases=3 linecode=201 Length=2.972 Units=m   
New Line.97 Bus1=97_2.1.2.3.4 Bus2=97.1.2.3.4 phases=3 linecode=304 Length=0.972 Units=m      
New Line.67_4 Bus1=67_4.1.2.3.4 Bus2=67_5.1.2.3.4 phases=3 linecode=316 Length=3.431 Units=m  
New Line.61_6 Bus1=61_6.1.2.3.4 Bus2=61_7.1.2.3.4 phases=3 linecode=316 Length=0.263 Units=m  
New Line.116 Bus1=116_9.1.2.3.4 Bus2=116.1.2.3.4 phases=3 linecode=304 Length=0.971 Units=m   
New Line.79 Bus1=79_2.1.2.3.4 Bus2=79.1.2.3.4 phases=3 linecode=201 Length=0.56 Units=m       
New Line.66_23 Bus1=66_23.1.2.3.4 Bus2=66_24.1.2.3.4 phases=3 linecode=316 Length=0.976 Units=m
New Line.69_0 Bus1=133.1.2.3.4 Bus2=69_1.1.2.3.4 phases=3 linecode=316 Length=20.422 Units=m  
New Line.132_5 Bus1=132_5.1.2.3.4 Bus2=132_6.1.2.3.4 phases=3 linecode=316 Length=0.43 Units=m
New Line.64_0 Bus1=62.1.2.3.4 Bus2=64_1.1.2.3.4 phases=3 linecode=304 Length=23.368 Units=m   
New Line.66_3 Bus1=66_3.1.2.3.4 Bus2=66_4.1.2.3.4 phases=3 linecode=316 Length=16.333 Units=m 
New Line.61_2 Bus1=61_2.1.2.3.4 Bus2=61_3.1.2.3.4 phases=3 linecode=316 Length=0.14 Units=m   
New Line.86_3 Bus1=86_3.1.2.3.4 Bus2=86_4.1.2.3.4 phases=3 linecode=304 Length=1.899 Units=m  
New Line.66_12 Bus1=66_12.1.2.3.4 Bus2=66_13.1.2.3.4 phases=3 linecode=316 Length=5.685 Units=m
New Line.92 Bus1=89.1.2.3.4 Bus2=92.1.2.3.4 phases=3 linecode=304 Length=28.827 Units=m       
New Line.111_4 Bus1=111_4.1.2.3.4 Bus2=111_5.1.2.3.4 phases=3 linecode=304 Length=3.741 Units=m
New Line.86_7 Bus1=86_7.1.2.3.4 Bus2=86_8.1.2.3.4 phases=3 linecode=304 Length=3.072 Units=m  
New Line.100_1 Bus1=100_1.1.2.3.4 Bus2=100_2.1.2.3.4 phases=3 linecode=304 Length=4.003 Units=m
New Line.74_0 Bus1=72.1.2.3.4 Bus2=74_1.1.2.3.4 phases=3 linecode=217 Length=0.461 Units=m    
New Line.99_0 Bus1=98.1.2.3.4 Bus2=99_1.1.2.3.4 phases=3 linecode=304 Length=0.962 Units=m    
New Line.79_1 Bus1=79_1.1.2.3.4 Bus2=79_2.1.2.3.4 phases=3 linecode=201 Length=2.33 Units=m   
New Line.86_5 Bus1=86_5.1.2.3.4 Bus2=86_6.1.2.3.4 phases=3 linecode=304 Length=6.062 Units=m  
New Line.99 Bus1=99_12.1.2.3.4 Bus2=99.1.2.3.4 phases=3 linecode=304 Length=0.97 Units=m      
New Line.95_0 Bus1=94.1.2.3.4 Bus2=95_1.1.2.3.4 phases=3 linecode=207 Length=0.514 Units=m    
New Line.84 Bus1=84_1.1.2.3.4 Bus2=84.1.2.3.4 phases=3 linecode=201 Length=3.175 Units=m      
New Line.132_2 Bus1=132_2.1.2.3.4 Bus2=132_3.1.2.3.4 phases=3 linecode=316 Length=0.216 Units=m
New Line.133_0 Bus1=68.1.2.3.4 Bus2=133_1.1.2.3.4 phases=3 linecode=316 Length=2.14 Units=m   
New Line.73_1 Bus1=73_1.1.2.3.4 Bus2=73_2.1.2.3.4 phases=3 linecode=201 Length=2.183 Units=m  
New Line.127 Bus1=2570.1.2.3.4 Bus2=127.1.2.3.4 phases=3 linecode=201 Length=1.032 Units=m    
New Line.98_9 Bus1=98_9.1.2.3.4 Bus2=98_10.1.2.3.4 phases=3 linecode=304 Length=1.34 Units=m  
New Line.80 Bus1=80_1.1.2.3.4 Bus2=80.1.2.3.4 phases=3 linecode=201 Length=2.61 Units=m       
New Line.89_1 Bus1=89_1.1.2.3.4 Bus2=89_2.1.2.3.4 phases=3 linecode=304 Length=0.729 Units=m  
New Line.68_0 Bus1=67.1.2.3.4 Bus2=68_1.1.2.3.4 phases=3 linecode=316 Length=10.86 Units=m    
New Line.111 Bus1=111_5.1.2.3.4 Bus2=111.1.2.3.4 phases=3 linecode=304 Length=0.34 Units=m    
New Line.85_0 Bus1=70.1.2.3.4 Bus2=85_1.1.2.3.4 phases=3 linecode=304 Length=0.955 Units=m    
New Line.86 Bus1=86_10.1.2.3.4 Bus2=86.1.2.3.4 phases=3 linecode=304 Length=0.951 Units=m     
New Line.67_1 Bus1=67_1.1.2.3.4 Bus2=67_2.1.2.3.4 phases=3 linecode=316 Length=2.265 Units=m  
New Line.107 Bus1=107_1.1.2.3.4 Bus2=107.1.2.3.4 phases=3 linecode=304 Length=20.357 Units=m  
New Line.69 Bus1=69_3.1.2.3.4 Bus2=69.1.2.3.4 phases=3 linecode=316 Length=1.026 Units=m      
New Line.100_0 Bus1=105.1.2.3.4 Bus2=100_1.1.2.3.4 phases=3 linecode=304 Length=6.082 Units=m 
New Line.66 Bus1=66_26.1.2.3.4 Bus2=66.1.2.3.4 phases=3 linecode=316 Length=3.607 Units=m     
New Line.67_2 Bus1=67_2.1.2.3.4 Bus2=67_3.1.2.3.4 phases=3 linecode=316 Length=3.665 Units=m  
New Line.129 Bus1=129_1.1.2.3.4 Bus2=129.1.2.3.4 phases=3 linecode=201 Length=4.457 Units=m   
New Line.120_0 Bus1=118.1.2.3.4 Bus2=120_1.1.2.3.4 phases=3 linecode=201 Length=2.022 Units=m 
New Line.107_0 Bus1=109.1.2.3.4 Bus2=107_1.1.2.3.4 phases=3 linecode=304 Length=0.52 Units=m  
New Line.114_1 Bus1=114_1.1.2.3.4 Bus2=114_2.1.2.3.4 phases=3 linecode=201 Length=1.743 Units=m
New Line.fuse102 Bus1=112.1.2.3.4 Bus2=2565.1.2.3.4 phases=3 linecode=102 Length=0.5 Units=m  
New Line.fuse107 Bus1=122.1.2.3.4 Bus2=2569.1.2.3.4 phases=3 linecode=102 Length=0.5 Units=m  
New Line.121_1 Bus1=121_1.1.2.3.4 Bus2=121_2.1.2.3.4 phases=3 linecode=304 Length=1.326 Units=m
New Line.61_10 Bus1=61_10.1.2.3.4 Bus2=61_11.1.2.3.4 phases=3 linecode=316 Length=0.177 Units=m
New Line.105_1 Bus1=105_1.1.2.3.4 Bus2=105_2.1.2.3.4 phases=3 linecode=304 Length=28.056 Units=m
New Line.111_2 Bus1=111_2.1.2.3.4 Bus2=111_3.1.2.3.4 phases=3 linecode=304 Length=7.17 Units=m
New Line.61_0 Bus1=2554.1.2.3.4 Bus2=61_1.1.2.3.4 phases=3 linecode=316 Length=2.594 Units=m  
New Line.132 Bus1=132_9.1.2.3.4 Bus2=132.1.2.3.4 phases=3 linecode=316 Length=8.561 Units=m
New Line.124 Bus1=124_2.1.2.3.4 Bus2=124.1.2.3.4 phases=3 linecode=201 Length=0.323 Units=m   
New Line.111_1 Bus1=111_1.1.2.3.4 Bus2=111_2.1.2.3.4 phases=3 linecode=304 Length=3.599 Units=m
New Line.70_2 Bus1=70_2.1.2.3.4 Bus2=70_3.1.2.3.4 phases=3 linecode=316 Length=10.604 Units=m 
New Line.fuse104 Bus1=117.1.2.3.4 Bus2=2568.1.2.3.4 phases=3 linecode=102 Length=0.5 Units=m  
New Line.64_4 Bus1=64_4.1.2.3.4 Bus2=64_5.1.2.3.4 phases=3 linecode=304 Length=0.136 Units=m  
New Line.109_1 Bus1=109_1.1.2.3.4 Bus2=109_2.1.2.3.4 phases=3 linecode=304 Length=9.072 Units=m
New Line.81 Bus1=70.1.2.3.4 Bus2=81.1.2.3.4 phases=3 linecode=304 Length=1.116 Units=m        
New Line.86_9 Bus1=86_9.1.2.3.4 Bus2=86_10.1.2.3.4 phases=3 linecode=304 Length=0.81 Units=m  
New Line.121_0 Bus1=99.1.2.3.4 Bus2=121_1.1.2.3.4 phases=3 linecode=304 Length=0.962 Units=m  
New Line.86_4 Bus1=86_4.1.2.3.4 Bus2=86_5.1.2.3.4 phases=3 linecode=304 Length=7.715 Units=m  
New Line.106 Bus1=107.1.2.3.4 Bus2=106.1.2.3.4 phases=3 linecode=307 Length=2.23 Units=m      
New Line.89_4 Bus1=89_4.1.2.3.4 Bus2=89_5.1.2.3.4 phases=3 linecode=304 Length=3.239 Units=m  
New Line.99_6 Bus1=99_6.1.2.3.4 Bus2=99_7.1.2.3.4 phases=3 linecode=304 Length=3.274 Units=m  
New Line.124_1 Bus1=124_1.1.2.3.4 Bus2=124_2.1.2.3.4 phases=3 linecode=201 Length=2.24 Units=m
New Line.71 Bus1=66.1.2.3.4 Bus2=71.1.2.3.4 phases=3 linecode=322 Length=2.384 Units=m        
New Line.64_1 Bus1=64_1.1.2.3.4 Bus2=64_2.1.2.3.4 phases=3 linecode=304 Length=0.206 Units=m  
New Line.116_5 Bus1=116_5.1.2.3.4 Bus2=116_6.1.2.3.4 phases=3 linecode=304 Length=6.039 Units=m
New Line.86_6 Bus1=86_6.1.2.3.4 Bus2=86_7.1.2.3.4 phases=3 linecode=304 Length=4.681 Units=m  
New Line.94 Bus1=92.1.2.3.4 Bus2=94.1.2.3.4 phases=3 linecode=307 Length=13.756 Units=m       
New Line.64_2 Bus1=64_2.1.2.3.4 Bus2=64_3.1.2.3.4 phases=3 linecode=304 Length=0.166 Units=m  
New Line.72 Bus1=67.1.2.3.4 Bus2=72.1.2.3.4 phases=3 linecode=322 Length=2.748 Units=m        
New Line.88 Bus1=2560.1.2.3.4 Bus2=88.1.2.3.4 phases=3 linecode=201 Length=1.057 Units=m      
New Line.77 Bus1=69.1.2.3.4 Bus2=77.1.2.3.4 phases=3 linecode=316 Length=1.11 Units=m
New Line.66_9 Bus1=66_9.1.2.3.4 Bus2=66_10.1.2.3.4 phases=3 linecode=316 Length=2.646 Units=m 
New Line.66_7 Bus1=66_7.1.2.3.4 Bus2=66_8.1.2.3.4 phases=3 linecode=316 Length=3.054 Units=m  
New Line.119_0 Bus1=118.1.2.3.4 Bus2=119_1.1.2.3.4 phases=3 linecode=201 Length=2.075 Units=m 
New Line.125_0 Bus1=123.1.2.3.4 Bus2=125_1.1.2.3.4 phases=3 linecode=201 Length=1.972 Units=m 
New Line.111_3 Bus1=111_3.1.2.3.4 Bus2=111_4.1.2.3.4 phases=3 linecode=304 Length=5.721 Units=m
New Line.99_11 Bus1=99_11.1.2.3.4 Bus2=99_12.1.2.3.4 phases=3 linecode=304 Length=1.296 Units=m
New Line.108 Bus1=109.1.2.3.4 Bus2=108.1.2.3.4 phases=3 linecode=307 Length=1.699 Units=m     
New Line.66_16 Bus1=66_16.1.2.3.4 Bus2=66_17.1.2.3.4 phases=3 linecode=316 Length=2.872 Units=m
New Line.132_6 Bus1=132_6.1.2.3.4 Bus2=132_7.1.2.3.4 phases=3 linecode=316 Length=0.279 Units=m
New Line.mv14 Bus1=source.1.2.3 Bus2=14.1.2.3 phases=3 linecode=101 Length=5.0 Units=m        
New Line.78 Bus1=2558.1.2.3.4 Bus2=78.1.2.3.4 phases=3 linecode=201 Length=1.05 Units=m       
New Line.70_1 Bus1=70_1.1.2.3.4 Bus2=70_2.1.2.3.4 phases=3 linecode=316 Length=0.84 Units=m   
New Line.104 Bus1=104_1.1.2.3.4 Bus2=104.1.2.3.4 phases=3 linecode=201 Length=5.02 Units=m    
New Line.79_0 Bus1=78.1.2.3.4 Bus2=79_1.1.2.3.4 phases=3 linecode=201 Length=2.224 Units=m    
New Line.128 Bus1=128_2.1.2.3.4 Bus2=128.1.2.3.4 phases=3 linecode=201 Length=0.326 Units=m   
New Line.99_5 Bus1=99_5.1.2.3.4 Bus2=99_6.1.2.3.4 phases=3 linecode=304 Length=4.267 Units=m  
New Line.132_0 Bus1=61.1.2.3.4 Bus2=132_1.1.2.3.4 phases=3 linecode=316 Length=4.603 Units=m  
New Line.131 Bus1=96.1.2.3.4 Bus2=131.1.2.3.4 phases=3 linecode=307 Length=1.468 Units=m      
New Line.120 Bus1=120_1.1.2.3.4 Bus2=120.1.2.3.4 phases=3 linecode=201 Length=2.304 Units=m   
New Line.87 Bus1=85.1.2.3.4 Bus2=87.1.2.3.4 phases=3 linecode=304 Length=1.116 Units=m        
New Line.132_7 Bus1=132_7.1.2.3.4 Bus2=132_8.1.2.3.4 phases=3 linecode=316 Length=0.252 Units=m
New Line.89 Bus1=89_6.1.2.3.4 Bus2=89.1.2.3.4 phases=3 linecode=304 Length=2.393 Units=m      
New Line.114_0 Bus1=113.1.2.3.4 Bus2=114_1.1.2.3.4 phases=3 linecode=201 Length=0.528 Units=m 
New Line.66_24 Bus1=66_24.1.2.3.4 Bus2=66_25.1.2.3.4 phases=3 linecode=316 Length=2.468 Units=m
New Line.102 Bus1=105.1.2.3.4 Bus2=102.1.2.3.4 phases=3 linecode=307 Length=2.93 Units=m      
New Line.85_3 Bus1=85_3.1.2.3.4 Bus2=85_4.1.2.3.4 phases=3 linecode=304 Length=5.126 Units=m  
New Line.121_4 Bus1=121_4.1.2.3.4 Bus2=121_5.1.2.3.4 phases=3 linecode=304 Length=4.871 Units=m
New Line.99_1 Bus1=99_1.1.2.3.4 Bus2=99_2.1.2.3.4 phases=3 linecode=304 Length=1.22 Units=m   
New Line.115 Bus1=115_1.1.2.3.4 Bus2=115.1.2.3.4 phases=3 linecode=201 Length=1.831 Units=m   
New Line.98_3 Bus1=98_3.1.2.3.4 Bus2=98_4.1.2.3.4 phases=3 linecode=304 Length=1.888 Units=m  
New Line.95 Bus1=95_1.1.2.3.4 Bus2=95.1.2.3.4 phases=3 linecode=207 Length=1.968 Units=m      
New Line.116_6 Bus1=116_6.1.2.3.4 Bus2=116_7.1.2.3.4 phases=3 linecode=304 Length=3.793 Units=m
New Line.116_0 Bus1=121.1.2.3.4 Bus2=116_1.1.2.3.4 phases=3 linecode=304 Length=0.94 Units=m  
New Line.115_0 Bus1=113.1.2.3.4 Bus2=115_1.1.2.3.4 phases=3 linecode=201 Length=0.457 Units=m 
New Line.75 Bus1=68.1.2.3.4 Bus2=75.1.2.3.4 phases=3 linecode=307 Length=1.693 Units=m        
New Line.116_2 Bus1=116_2.1.2.3.4 Bus2=116_3.1.2.3.4 phases=3 linecode=304 Length=3.779 Units=m
New Line.113 Bus1=2565.1.2.3.4 Bus2=113.1.2.3.4 phases=3 linecode=201 Length=1.08 Units=m     
New Line.99_3 Bus1=99_3.1.2.3.4 Bus2=99_4.1.2.3.4 phases=3 linecode=304 Length=1.875 Units=m  
New Line.66_2 Bus1=66_2.1.2.3.4 Bus2=66_3.1.2.3.4 phases=3 linecode=316 Length=4.248 Units=m  
New Line.109 Bus1=109_2.1.2.3.4 Bus2=109.1.2.3.4 phases=3 linecode=304 Length=3.72 Units=m    
New Line.121_6 Bus1=121_6.1.2.3.4 Bus2=121_7.1.2.3.4 phases=3 linecode=304 Length=3.987 Units=m
New Line.61_8 Bus1=61_8.1.2.3.4 Bus2=61_9.1.2.3.4 phases=3 linecode=316 Length=0.175 Units=m  
New Line.116_4 Bus1=116_4.1.2.3.4 Bus2=116_5.1.2.3.4 phases=3 linecode=304 Length=5.149 Units=m
New Line.85_1 Bus1=85_1.1.2.3.4 Bus2=85_2.1.2.3.4 phases=3 linecode=304 Length=1.446 Units=m  
New Line.132_3 Bus1=132_3.1.2.3.4 Bus2=132_4.1.2.3.4 phases=3 linecode=316 Length=0.368 Units=m
New Line.fuse90 Bus1=77.1.2.3.4 Bus2=2558.1.2.3.4 phases=3 linecode=102 Length=0.5 Units=m    
New Line.66_0 Bus1=132.1.2.3.4 Bus2=66_1.1.2.3.4 phases=3 linecode=316 Length=1.039 Units=m   
New Line.61_11 Bus1=61_11.1.2.3.4 Bus2=61_12.1.2.3.4 phases=3 linecode=316 Length=1.937 Units=m
New Line.70_3 Bus1=70_3.1.2.3.4 Bus2=70_4.1.2.3.4 phases=3 linecode=316 Length=3.686 Units=m  
New Line.99_10 Bus1=99_10.1.2.3.4 Bus2=99_11.1.2.3.4 phases=3 linecode=304 Length=3.539 Units=m
New Line.116_1 Bus1=116_1.1.2.3.4 Bus2=116_2.1.2.3.4 phases=3 linecode=304 Length=3.964 Units=m
New Line.119_1 Bus1=119_1.1.2.3.4 Bus2=119_2.1.2.3.4 phases=3 linecode=201 Length=3.129 Units=m
New Line.62_0 Bus1=97.1.2.3.4 Bus2=62_1.1.2.3.4 phases=3 linecode=304 Length=1.445 Units=m    
New Line.96 Bus1=96_1.1.2.3.4 Bus2=96.1.2.3.4 phases=3 linecode=304 Length=0.988 Units=m      
New Line.99_9 Bus1=99_9.1.2.3.4 Bus2=99_10.1.2.3.4 phases=3 linecode=304 Length=2.052 Units=m 
New Line.66_5 Bus1=66_5.1.2.3.4 Bus2=66_6.1.2.3.4 phases=3 linecode=316 Length=7.085 Units=m  
New Line.90 Bus1=86.1.2.3.4 Bus2=90.1.2.3.4 phases=3 linecode=304 Length=1.076 Units=m        
New Line.111_0 Bus1=116.1.2.3.4 Bus2=111_1.1.2.3.4 phases=3 linecode=304 Length=0.987 Units=m 
New Line.98 Bus1=98_11.1.2.3.4 Bus2=98.1.2.3.4 phases=3 linecode=304 Length=0.96 Units=m      
New Line.132_1 Bus1=132_1.1.2.3.4 Bus2=132_2.1.2.3.4 phases=3 linecode=316 Length=27.672 Units=m
New Line.73 Bus1=73_2.1.2.3.4 Bus2=73.1.2.3.4 phases=3 linecode=201 Length=0.433 Units=m      
New Line.82 Bus1=2559.1.2.3.4 Bus2=82.1.2.3.4 phases=3 linecode=201 Length=1.074 Units=m      
New Line.61_4 Bus1=61_4.1.2.3.4 Bus2=61_5.1.2.3.4 phases=3 linecode=316 Length=0.17 Units=m   
New Line.86_2 Bus1=86_2.1.2.3.4 Bus2=86_3.1.2.3.4 phases=3 linecode=304 Length=1.387 Units=m  
New Line.85_4 Bus1=85_4.1.2.3.4 Bus2=85_5.1.2.3.4 phases=3 linecode=304 Length=3.355 Units=m  
New Line.130 Bus1=96.1.2.3.4 Bus2=130.1.2.3.4 phases=3 linecode=303 Length=1.136 Units=m      
New Line.100 Bus1=100_4.1.2.3.4 Bus2=100.1.2.3.4 phases=3 linecode=304 Length=4.141 Units=m   
New Line.62_3 Bus1=62_3.1.2.3.4 Bus2=62_4.1.2.3.4 phases=3 linecode=304 Length=11.792 Units=m 
New Line.132_8 Bus1=132_8.1.2.3.4 Bus2=132_9.1.2.3.4 phases=3 linecode=316 Length=0.219 Units=m
New Line.74 Bus1=74_1.1.2.3.4 Bus2=74.1.2.3.4 phases=3 linecode=217 Length=5.466 Units=m      
New Line.fuse108 Bus1=126.1.2.3.4 Bus2=2570.1.2.3.4 phases=3 linecode=102 Length=0.5 Units=m  
New Line.121 Bus1=121_7.1.2.3.4 Bus2=121.1.2.3.4 phases=3 linecode=304 Length=0.952 Units=m   
New Line.66_25 Bus1=66_25.1.2.3.4 Bus2=66_26.1.2.3.4 phases=3 linecode=316 Length=3.934 Units=m
New Line.97_1 Bus1=97_1.1.2.3.4 Bus2=97_2.1.2.3.4 phases=3 linecode=304 Length=1.63 Units=m   
New Line.89_5 Bus1=89_5.1.2.3.4 Bus2=89_6.1.2.3.4 phases=3 linecode=304 Length=4.589 Units=m  
New Line.98_5 Bus1=98_5.1.2.3.4 Bus2=98_6.1.2.3.4 phases=3 linecode=304 Length=1.551 Units=m  
New Line.66_17 Bus1=66_17.1.2.3.4 Bus2=66_18.1.2.3.4 phases=3 linecode=316 Length=2.814 Units=m
New Line.86_0 Bus1=85.1.2.3.4 Bus2=86_1.1.2.3.4 phases=3 linecode=304 Length=1.003 Units=m    
New Line.86_1 Bus1=86_1.1.2.3.4 Bus2=86_2.1.2.3.4 phases=3 linecode=304 Length=0.064 Units=m  
New Line.85_2 Bus1=85_2.1.2.3.4 Bus2=85_3.1.2.3.4 phases=3 linecode=304 Length=4.523 Units=m  
New Line.68 Bus1=68_1.1.2.3.4 Bus2=68.1.2.3.4 phases=3 linecode=316 Length=11.071 Units=m     
New Line.76 Bus1=133.1.2.3.4 Bus2=76.1.2.3.4 phases=3 linecode=307 Length=2.707 Units=m       
New Line.93 Bus1=92.1.2.3.4 Bus2=93.1.2.3.4 phases=3 linecode=307 Length=2.337 Units=m        
New Line.62 Bus1=62_4.1.2.3.4 Bus2=62.1.2.3.4 phases=3 linecode=304 Length=11.292 Units=m     
New Line.61_7 Bus1=61_7.1.2.3.4 Bus2=61_8.1.2.3.4 phases=3 linecode=316 Length=0.209 Units=m  
New Line.96_0 Bus1=89.1.2.3.4 Bus2=96_1.1.2.3.4 phases=3 linecode=304 Length=2.44 Units=m     
New Line.84_0 Bus1=82.1.2.3.4 Bus2=84_1.1.2.3.4 phases=3 linecode=201 Length=2.38 Units=m     
New Line.128_0 Bus1=127.1.2.3.4 Bus2=128_1.1.2.3.4 phases=3 linecode=201 Length=1.721 Units=m 
New Line.99_7 Bus1=99_7.1.2.3.4 Bus2=99_8.1.2.3.4 phases=3 linecode=304 Length=2.777 Units=m  
New Line.85_6 Bus1=85_6.1.2.3.4 Bus2=85_7.1.2.3.4 phases=3 linecode=304 Length=0.292 Units=m  
New Line.61_9 Bus1=61_9.1.2.3.4 Bus2=61_10.1.2.3.4 phases=3 linecode=316 Length=0.172 Units=m 
New Line.80_0 Bus1=78.1.2.3.4 Bus2=80_1.1.2.3.4 phases=3 linecode=201 Length=2.2 Units=m      
New Line.fuse93 Bus1=81.1.2.3.4 Bus2=2559.1.2.3.4 phases=3 linecode=102 Length=0.5 Units=m    
New Line.83_0 Bus1=82.1.2.3.4 Bus2=83_1.1.2.3.4 phases=3 linecode=201 Length=2.489 Units=m    
New Line.85 Bus1=85_7.1.2.3.4 Bus2=85.1.2.3.4 phases=3 linecode=304 Length=0.95 Units=m       
New Line.66_10 Bus1=66_10.1.2.3.4 Bus2=66_11.1.2.3.4 phases=3 linecode=316 Length=5.611 Units=m
New Line.99_2 Bus1=99_2.1.2.3.4 Bus2=99_3.1.2.3.4 phases=3 linecode=304 Length=5.062 Units=m  
New Line.66_15 Bus1=66_15.1.2.3.4 Bus2=66_16.1.2.3.4 phases=3 linecode=316 Length=12.981 Units=m
New Line.124_0 Bus1=123.1.2.3.4 Bus2=124_1.1.2.3.4 phases=3 linecode=201 Length=2.022 Units=m 
New Line.103_0 Bus1=102.1.2.3.4 Bus2=103_1.1.2.3.4 phases=3 linecode=217 Length=0.544 Units=m 
New Line.67 Bus1=67_5.1.2.3.4 Bus2=67.1.2.3.4 phases=3 linecode=316 Length=3.922 Units=m      
New Line.61_3 Bus1=61_3.1.2.3.4 Bus2=61_4.1.2.3.4 phases=3 linecode=316 Length=0.21 Units=m   
New Line.61_1 Bus1=61_1.1.2.3.4 Bus2=61_2.1.2.3.4 phases=3 linecode=316 Length=1.163 Units=m  
New Line.61_5 Bus1=61_5.1.2.3.4 Bus2=61_6.1.2.3.4 phases=3 linecode=316 Length=0.206 Units=m  
New Line.116_8 Bus1=116_8.1.2.3.4 Bus2=116_9.1.2.3.4 phases=3 linecode=304 Length=3.619 Units=m
New Line.126 Bus1=98.1.2.3.4 Bus2=126.1.2.3.4 phases=3 linecode=304 Length=1.041 Units=m      
New Line.121_5 Bus1=121_5.1.2.3.4 Bus2=121_6.1.2.3.4 phases=3 linecode=304 Length=3.52 Units=m
New Line.62_1 Bus1=62_1.1.2.3.4 Bus2=62_2.1.2.3.4 phases=3 linecode=304 Length=1.921 Units=m  
New Line.70 Bus1=70_7.1.2.3.4 Bus2=70.1.2.3.4 phases=3 linecode=316 Length=0.955 Units=m      
New Line.67_3 Bus1=67_3.1.2.3.4 Bus2=67_4.1.2.3.4 phases=3 linecode=316 Length=6.262 Units=m  
New Line.66_22 Bus1=66_22.1.2.3.4 Bus2=66_23.1.2.3.4 phases=3 linecode=316 Length=1.252 Units=m
New Line.70_0 Bus1=69.1.2.3.4 Bus2=70_1.1.2.3.4 phases=3 linecode=316 Length=1.014 Units=m    
New Line.64_3 Bus1=64_3.1.2.3.4 Bus2=64_4.1.2.3.4 phases=3 linecode=304 Length=0.132 Units=m  
New Line.70_4 Bus1=70_4.1.2.3.4 Bus2=70_5.1.2.3.4 phases=3 linecode=316 Length=11.605 Units=m 
New Line.116_3 Bus1=116_3.1.2.3.4 Bus2=116_4.1.2.3.4 phases=3 linecode=304 Length=5.22 Units=m
New Line.66_18 Bus1=66_18.1.2.3.4 Bus2=66_19.1.2.3.4 phases=3 linecode=316 Length=2.53 Units=m
New Line.62_2 Bus1=62_2.1.2.3.4 Bus2=62_3.1.2.3.4 phases=3 linecode=304 Length=4.557 Units=m  
New Line.104_0 Bus1=102.1.2.3.4 Bus2=104_1.1.2.3.4 phases=3 linecode=201 Length=0.392 Units=m 
New Line.98_8 Bus1=98_8.1.2.3.4 Bus2=98_9.1.2.3.4 phases=3 linecode=304 Length=2.412 Units=m  
New Line.103_1 Bus1=103_1.1.2.3.4 Bus2=103_2.1.2.3.4 phases=3 linecode=217 Length=3.252 Units=m
New Line.100_2 Bus1=100_2.1.2.3.4 Bus2=100_3.1.2.3.4 phases=3 linecode=304 Length=2.411 Units=m
New Line.64 Bus1=64_5.1.2.3.4 Bus2=64.1.2.3.4 phases=3 linecode=304 Length=0.177 Units=m      
New Line.101 Bus1=100.1.2.3.4 Bus2=101.1.2.3.4 phases=3 linecode=307 Length=0.944 Units=m     
New Line.70_6 Bus1=70_6.1.2.3.4 Bus2=70_7.1.2.3.4 phases=3 linecode=316 Length=1.489 Units=m  
New Line.73_0 Bus1=72.1.2.3.4 Bus2=73_1.1.2.3.4 phases=3 linecode=201 Length=0.504 Units=m    
New Line.99_8 Bus1=99_8.1.2.3.4 Bus2=99_9.1.2.3.4 phases=3 linecode=304 Length=1.924 Units=m  
New Line.67_0 Bus1=66.1.2.3.4 Bus2=67_1.1.2.3.4 phases=3 linecode=316 Length=4.658 Units=m    
New Line.105 Bus1=105_2.1.2.3.4 Bus2=105.1.2.3.4 phases=3 linecode=304 Length=0.18 Units=m    
New Line.85_5 Bus1=85_5.1.2.3.4 Bus2=85_6.1.2.3.4 phases=3 linecode=304 Length=4.346 Units=m  
New Line.63 Bus1=62.1.2.3.4 Bus2=63.1.2.3.4 phases=3 linecode=307 Length=1.141 Units=m        
New Line.66_1 Bus1=66_1.1.2.3.4 Bus2=66_2.1.2.3.4 phases=3 linecode=316 Length=1.17 Units=m   
New Line.110 Bus1=111.1.2.3.4 Bus2=110.1.2.3.4 phases=3 linecode=312 Length=1.32 Units=m      
New Line.116_7 Bus1=116_7.1.2.3.4 Bus2=116_8.1.2.3.4 phases=3 linecode=304 Length=1.921 Units=m
New Line.118 Bus1=2568.1.2.3.4 Bus2=118.1.2.3.4 phases=3 linecode=201 Length=1.07 Units=m     
New Line.cktbk80 Bus1=44_5.1.2.3.4 Bus2=2554.1.2.3.4 phases=3 linecode=102 Length=0.5 Units=m 
New Line.121_2 Bus1=121_2.1.2.3.4 Bus2=121_3.1.2.3.4 phases=3 linecode=304 Length=4.845 Units=m
New Line.105_0 Bus1=107.1.2.3.4 Bus2=105_1.1.2.3.4 phases=3 linecode=304 Length=0.04 Units=m  
New Line.65 Bus1=132.1.2.3.4 Bus2=65.1.2.3.4 phases=3 linecode=316 Length=1.053 Units=m       
New Line.66_8 Bus1=66_8.1.2.3.4 Bus2=66_9.1.2.3.4 phases=3 linecode=316 Length=3.248 Units=m  
New Line.66_21 Bus1=66_21.1.2.3.4 Bus2=66_22.1.2.3.4 phases=3 linecode=316 Length=1.862 Units=m
New Line.66_13 Bus1=66_13.1.2.3.4 Bus2=66_14.1.2.3.4 phases=3 linecode=316 Length=7.159 Units=m
New Line.86_8 Bus1=86_8.1.2.3.4 Bus2=86_9.1.2.3.4 phases=3 linecode=304 Length=3.722 Units=m  
New Line.128_1 Bus1=128_1.1.2.3.4 Bus2=128_2.1.2.3.4 phases=3 linecode=201 Length=3.682 Units=m
New Line.132_4 Bus1=132_4.1.2.3.4 Bus2=132_5.1.2.3.4 phases=3 linecode=316 Length=0.34 Units=m
New Line.103 Bus1=103_2.1.2.3.4 Bus2=103.1.2.3.4 phases=3 linecode=217 Length=0.348 Units=m   
New Line.98_7 Bus1=98_7.1.2.3.4 Bus2=98_8.1.2.3.4 phases=3 linecode=304 Length=3.785 Units=m  
New Line.98_6 Bus1=98_6.1.2.3.4 Bus2=98_7.1.2.3.4 phases=3 linecode=304 Length=2.094 Units=m  
New Line.66_11 Bus1=66_11.1.2.3.4 Bus2=66_12.1.2.3.4 phases=3 linecode=316 Length=6.991 Units=m
New Line.121_3 Bus1=121_3.1.2.3.4 Bus2=121_4.1.2.3.4 phases=3 linecode=304 Length=4.321 Units=m
New Line.fuse94 Bus1=87.1.2.3.4 Bus2=2560.1.2.3.4 phases=3 linecode=102 Length=0.5 Units=m    
New Line.70_5 Bus1=70_5.1.2.3.4 Bus2=70_6.1.2.3.4 phases=3 linecode=316 Length=0.684 Units=m  
New Line.98_0 Bus1=97.1.2.3.4 Bus2=98_1.1.2.3.4 phases=3 linecode=304 Length=0.946 Units=m    
New Line.98_2 Bus1=98_2.1.2.3.4 Bus2=98_3.1.2.3.4 phases=3 linecode=304 Length=1.507 Units=m  
New Line.122 Bus1=99.1.2.3.4 Bus2=122.1.2.3.4 phases=3 linecode=304 Length=1.06 Units=m       
New Line.123 Bus1=2569.1.2.3.4 Bus2=123.1.2.3.4 phases=3 linecode=201 Length=1.076 Units=m    
New Line.89_3 Bus1=89_3.1.2.3.4 Bus2=89_4.1.2.3.4 phases=3 linecode=304 Length=1.351 Units=m  
New Line.66_19 Bus1=66_19.1.2.3.4 Bus2=66_20.1.2.3.4 phases=3 linecode=316 Length=2.009 Units=m
New Line.99_4 Bus1=99_4.1.2.3.4 Bus2=99_5.1.2.3.4 phases=3 linecode=304 Length=3.451 Units=m  
New Line.129_0 Bus1=127.1.2.3.4 Bus2=129_1.1.2.3.4 phases=3 linecode=201 Length=1.732 Units=m 
New Line.133 Bus1=133_1.1.2.3.4 Bus2=133.1.2.3.4 phases=3 linecode=316 Length=13.34 Units=m   
New Line.66_6 Bus1=66_6.1.2.3.4 Bus2=66_7.1.2.3.4 phases=3 linecode=316 Length=8.409 Units=m  
New Line.119 Bus1=119_2.1.2.3.4 Bus2=119.1.2.3.4 phases=3 linecode=201 Length=0.521 Units=m   
New Line.98_4 Bus1=98_4.1.2.3.4 Bus2=98_5.1.2.3.4 phases=3 linecode=304 Length=2.616 Units=m  
New Line.114 Bus1=114_2.1.2.3.4 Bus2=114.1.2.3.4 phases=3 linecode=201 Length=0.335 Units=m   
New Line.89_2 Bus1=89_2.1.2.3.4 Bus2=89_3.1.2.3.4 phases=3 linecode=304 Length=3.481 Units=m  
New Line.66_14 Bus1=66_14.1.2.3.4 Bus2=66_15.1.2.3.4 phases=3 linecode=316 Length=6.279 Units=m
New Line.69_1 Bus1=69_1.1.2.3.4 Bus2=69_2.1.2.3.4 phases=3 linecode=316 Length=19.662 Units=m 
New Line.109_0 Bus1=111.1.2.3.4 Bus2=109_1.1.2.3.4 phases=3 linecode=304 Length=6.512 Units=m 
New Line.feeder80 Bus1=44.1.2.3.4 Bus2=44_5.1.2.3.4 phases=3 linecode=205 Length=2.243 Units=m

! --LOADS-----------------------------------------------------------------------------------------------------------

New load.load4934 Phases=1 Bus1=80.3.4 kV=0.23 kW=1.0 PF=0.95 daily=shape_4934
New load.load4936 Phases=1 Bus1=110.1.4 kV=0.23 kW=1.0 PF=0.95 daily=shape_4936
New load.load4946 Phases=1 Bus1=82.3.4 kV=0.23 kW=1.0 PF=0.95 daily=shape_4946
New load.load4941 Phases=1 Bus1=76.3.4 kV=0.23 kW=1.0 PF=0.95 daily=shape_4941
New load.load4736 Phases=1 Bus1=120.2.4 kV=0.23 kW=1.0 PF=0.95 daily=shape_4736
New load.load4885 Phases=3 Bus1=131.1.2.3.4 kV=0.4 kW=1.0 PF=0.95 daily=shape_4885
New load.load4916 Phases=1 Bus1=125.1.4 kV=0.23 kW=1.0 PF=0.95 daily=shape_4916
New load.load4945 Phases=1 Bus1=84.1.4 kV=0.23 kW=1.0 PF=0.95 daily=shape_4945
New load.load4935 Phases=1 Bus1=78.2.4 kV=0.23 kW=1.0 PF=0.95 daily=shape_4935
New load.load4914 Phases=1 Bus1=71.1.4 kV=0.23 kW=1.0 PF=0.95 daily=shape_4914
New load.load4948 Phases=1 Bus1=118.3.4 kV=0.23 kW=1.0 PF=0.95 daily=shape_4948
New load.load4947 Phases=1 Bus1=127.1.4 kV=0.23 kW=1.0 PF=0.95 daily=shape_4947
New load.load4973 Phases=1 Bus1=88.3.4 kV=0.23 kW=1.0 PF=0.95 daily=shape_4973
New load.load4952 Phases=1 Bus1=101.1.4 kV=0.23 kW=1.0 PF=0.95 daily=shape_4952
New load.load4931 Phases=1 Bus1=63.3.4 kV=0.23 kW=1.0 PF=0.95 daily=shape_4931
New load.load4939 Phases=1 Bus1=113.3.4 kV=0.23 kW=1.0 PF=0.95 daily=shape_4939
New load.load4940 Phases=1 Bus1=115.1.4 kV=0.23 kW=1.0 PF=0.95 daily=shape_4940
New load.load4890 Phases=3 Bus1=93.1.2.3.4 kV=0.4 kW=1.0 PF=0.95 daily=shape_4890
New load.load4738 Phases=1 Bus1=123.3.4 kV=0.23 kW=1.0 PF=0.95 daily=shape_4738
New load.load4937 Phases=1 Bus1=106.1.4 kV=0.23 kW=1.0 PF=0.95 daily=shape_4937
New load.load4971 Phases=1 Bus1=130.2.4 kV=0.23 kW=1.0 PF=0.95 daily=shape_4971
New load.load4886 Phases=3 Bus1=94.1.2.3.4 kV=0.4 kW=1.0 PF=0.95 daily=shape_4886
New load.load4949 Phases=1 Bus1=129.2.4 kV=0.23 kW=1.0 PF=0.95 daily=shape_4949
New load.load4850 Phases=1 Bus1=72.1.4 kV=0.23 kW=1.0 PF=0.95 daily=shape_4850
New load.load4942 Phases=1 Bus1=74.3.4 kV=0.23 kW=1.0 PF=0.95 daily=shape_4942
New load.load4938 Phases=1 Bus1=104.2.4 kV=0.23 kW=1.0 PF=0.95 daily=shape_4938
New load.load4872 Phases=1 Bus1=75.2.4 kV=0.23 kW=1.0 PF=0.95 daily=shape_4872
New load.load4975 Phases=1 Bus1=75.3.4 kV=0.23 kW=1.0 PF=0.95 daily=shape_4975
New load.load4943 Phases=1 Bus1=102.3.4 kV=0.23 kW=1.0 PF=0.95 daily=shape_4943

! --PF -----------------------------------------------------------------------------------------------------------
set mode=Daily number=481 stepsize=60m
Calcvoltagebases
solve
BusCoords Buscord_indexed.txt
Plot circuit Power Max=1000 dots=n labels=n subs=y C1=black 1ph=3